# CIF file generated by openbabel 3.0.0, see http://openbabel.sf.net
data_I
_chemical_name_common 'conf.pdb'
_cell_length_a 6
_cell_length_b 6
_cell_length_c 6
_cell_angle_alpha 90
_cell_angle_beta 90
_cell_angle_gamma 90
_space_group_name_H-M_alt 'P 1'
_space_group_name_Hall 'P 1'
loop_
    _symmetry_equiv_pos_as_xyz
    x,y,z
loop_
    _atom_site_label
    _atom_site_type_symbol
    _atom_site_fract_x
    _atom_site_fract_y
    _atom_site_fract_z
    _atom_site_occupancy
    N0      N    0.44317   0.06633   0.23833   1.000
    H1      H    0.60700   0.07483   0.28550   1.000
    H2      H    0.36267   0.95300   0.34033   1.000
    H3      H    0.36517   0.21567   0.27233   1.000
    C4      C    0.40633   0.00317   0.99650   1.000
    H5      H    0.49233   0.13133   0.89900   1.000
    C6      C    0.15800   0.01983   0.94283   1.000
    C7      C    0.50400   0.77133   0.94900   1.000
    H8      H    0.68633   0.78567   0.94117   1.000
    H9      H    0.45300   0.71150   0.78400   1.000
    C10     C    0.44333   0.59683   0.12000   1.000
    C11     C    0.22917   0.50267   0.12533   1.000
    H12     H    0.10333   0.54533   0.00150   1.000
    C13     C    0.60033   0.53017   0.28017   1.000
    H14     H    0.77033   0.59367   0.27833   1.000
    C15     C    0.17183   0.34867   0.29033   1.000
    H16     H    0.00517   0.27767   0.29200   1.000
    C17     C    0.54233   0.37683   0.44483   1.000
    H18     H    0.66400   0.32400   0.56850   1.000
    C19     C    0.32883   0.28783   0.44917   1.000
    O20     O    0.28033   0.13950   0.61383   1.000
    H21     H    0.13267   0.07733   0.58967   1.000
    O22     O    0.02433   0.07183   0.08850   1.000
    O23     O    0.09700   0.98267   0.73083   1.000
